Version 4
SHEET 1 1460 2264
WIRE -1008 -704 -1104 -704
WIRE -896 -704 -896 -752
WIRE -896 -704 -1008 -704
WIRE -1104 -592 -1104 -704
WIRE -1008 -544 -1008 -704
WIRE -1008 -544 -1104 -544
WIRE -1200 -512 -1280 -512
WIRE -1152 -512 -1200 -512
WIRE -1104 -464 -1104 -496
WIRE -176 -464 -1104 -464
WIRE -1104 -416 -1104 -464
WIRE -1008 -368 -1104 -368
WIRE -1200 -336 -1200 -512
WIRE -1152 -336 -1200 -336
WIRE -1280 -288 -1280 -512
WIRE -896 -288 -896 -704
WIRE 208 -192 208 -224
WIRE 608 -192 208 -192
WIRE 608 -144 608 -192
WIRE 608 -128 608 -144
WIRE 208 -96 208 -192
WIRE 208 -96 80 -96
WIRE 336 -96 208 -96
WIRE -1280 -64 -1280 -208
WIRE -1104 -64 -1104 -320
WIRE -1104 -64 -1280 -64
WIRE -1008 -64 -1008 -368
WIRE -1008 -64 -1104 -64
WIRE -896 -64 -896 -208
WIRE -896 -64 -1008 -64
WIRE -1104 -48 -1104 -64
WIRE 80 -16 80 -96
WIRE 336 -16 336 -96
WIRE 608 -16 608 -64
WIRE -176 64 -176 -464
WIRE -48 64 -48 32
WIRE -48 64 -176 64
WIRE 32 64 -48 64
WIRE 464 64 464 32
WIRE 464 64 384 64
WIRE 1328 64 464 64
WIRE 80 144 80 80
WIRE 208 144 80 144
WIRE 336 144 336 80
WIRE 336 144 208 144
WIRE 208 192 208 144
WIRE 336 192 208 192
WIRE 208 224 208 192
WIRE -48 304 -48 64
WIRE 160 304 -48 304
WIRE 208 368 208 320
WIRE 368 368 336 192
WIRE 1040 368 368 368
WIRE 1216 368 1040 368
WIRE 1232 368 1216 368
WIRE 464 448 464 64
WIRE 464 448 256 448
WIRE 208 528 208 464
WIRE 1040 640 1040 368
WIRE -208 768 1040 640
WIRE 1328 768 1328 64
WIRE 1328 768 1040 768
WIRE 208 848 208 816
WIRE 608 848 208 848
WIRE 608 896 608 848
WIRE 608 912 608 896
WIRE 208 944 208 848
WIRE 208 944 80 944
WIRE 336 944 208 944
WIRE 80 1024 80 944
WIRE 336 1024 336 944
WIRE 608 1024 608 976
WIRE -208 1104 -208 768
WIRE -48 1104 -48 1072
WIRE -48 1104 -208 1104
WIRE 32 1104 -48 1104
WIRE 464 1104 464 1072
WIRE 464 1104 384 1104
WIRE 608 1104 464 1104
WIRE 80 1184 80 1120
WIRE 208 1184 80 1184
WIRE 336 1184 336 1120
WIRE 336 1184 208 1184
WIRE 208 1232 208 1184
WIRE 352 1232 208 1232
WIRE 208 1264 208 1232
WIRE -48 1344 -48 1104
WIRE 160 1344 -48 1344
WIRE 208 1408 208 1360
WIRE 352 1408 352 1232
WIRE 1040 1408 1040 768
WIRE 1040 1408 352 1408
WIRE 1360 1408 1040 1408
WIRE 464 1488 464 1104
WIRE 464 1488 256 1488
WIRE -912 1520 -1008 1520
WIRE -800 1520 -800 1472
WIRE -800 1520 -912 1520
WIRE 208 1568 208 1504
WIRE -1008 1632 -1008 1520
WIRE -912 1680 -912 1520
WIRE -912 1680 -1008 1680
WIRE -1104 1712 -1184 1712
WIRE -1056 1712 -1104 1712
WIRE -1008 1776 -1008 1728
WIRE 608 1776 608 1104
WIRE 608 1776 -1008 1776
WIRE -1008 1808 -1008 1776
WIRE -912 1856 -1008 1856
WIRE -1104 1888 -1104 1712
WIRE -1056 1888 -1104 1888
WIRE -1184 1936 -1184 1712
WIRE -800 1936 -800 1520
WIRE -1184 2160 -1184 2016
WIRE -1008 2160 -1008 1904
WIRE -1008 2160 -1184 2160
WIRE -912 2160 -912 1856
WIRE -912 2160 -1008 2160
WIRE -800 2160 -800 2016
WIRE -800 2160 -912 2160
WIRE -1008 2176 -1008 2160
FLAG 208 528 0
FLAG 208 -224 Vdd
FLAG 80 32 Vdd
FLAG 336 32 Vdd
FLAG -48 32 S
FLAG 464 32 Q_BAR
FLAG 608 -16 0
FLAG 208 272 0
FLAG 208 416 0
FLAG 208 1568 0
FLAG 208 816 Vdd2
FLAG 80 1072 Vdd
FLAG 336 1072 Vdd
FLAG -48 1072 Q
FLAG 464 1072 R
FLAG 608 1024 0
FLAG 208 1312 0
FLAG 208 1456 0
FLAG 1216 368 Q
FLAG 1360 1408 Q_BAR
FLAG -1104 -48 0
FLAG -896 -752 Vdd5
FLAG -1008 2176 0
FLAG -800 1472 Vdd3
SYMBOL pmos4 32 -16 R0
WINDOW 0 53 12 Left 2
WINDOW 3 52 83 Left 2
SYMATTR InstName M1
SYMATTR Value2 l=0.6u w=6u
SYMBOL pmos4 384 -16 M0
WINDOW 0 53 9 Left 2
WINDOW 3 55 83 Left 2
SYMATTR InstName M2
SYMATTR Value2 l=0.6u w=6u
SYMBOL nmos4 160 224 R0
WINDOW 0 60 11 Left 2
WINDOW 3 56 78 Left 2
SYMATTR InstName M3
SYMATTR Value2 l=0.6u w=3u
SYMBOL nmos4 256 368 M0
WINDOW 0 54 10 Left 2
WINDOW 3 56 81 Left 2
SYMATTR InstName M4
SYMATTR Value2 l=0.6u w=3u
SYMBOL voltage 608 -160 R0
WINDOW 123 0 0 Left 0
WINDOW 39 0 0 Left 0
SYMATTR InstName V2
SYMATTR Value 5v
SYMBOL pmos4 32 1024 R0
WINDOW 0 53 12 Left 2
WINDOW 3 52 83 Left 2
SYMATTR InstName M5
SYMATTR Value2 l=0.6u w=6u
SYMBOL pmos4 384 1024 M0
WINDOW 0 53 9 Left 2
WINDOW 3 55 83 Left 2
SYMATTR InstName M6
SYMATTR Value2 l=0.6u w=6u
SYMBOL nmos4 160 1264 R0
WINDOW 0 60 11 Left 2
WINDOW 3 56 78 Left 2
SYMATTR InstName M7
SYMATTR Value2 l=0.6u w=3u
SYMBOL nmos4 256 1408 M0
WINDOW 0 54 10 Left 2
WINDOW 3 56 81 Left 2
SYMATTR InstName M8
SYMATTR Value2 l=0.6u w=3u
SYMBOL voltage 608 880 R0
WINDOW 123 0 0 Left 0
WINDOW 39 0 0 Left 0
SYMATTR InstName V5
SYMATTR Value 5v
SYMBOL voltage -1280 -304 R0
WINDOW 3 -71 -163 VRight 2
WINDOW 123 0 0 Left 0
WINDOW 39 0 0 Left 0
SYMATTR Value 5
SYMATTR InstName V1
SYMBOL voltage -896 -304 R0
WINDOW 123 0 0 Left 0
WINDOW 39 0 0 Left 0
SYMATTR InstName V3
SYMATTR Value 5V
SYMBOL pmos4 -1152 -592 R0
SYMATTR InstName M9
SYMATTR Value2 l=0.6u w=6u
SYMBOL nmos4 -1152 -416 R0
SYMATTR InstName M10
SYMATTR Value2 l=0.6u w=3u
SYMBOL voltage -1184 1920 R0
WINDOW 3 -71 -163 VRight 2
WINDOW 123 0 0 Left 0
WINDOW 39 0 0 Left 0
SYMATTR Value 0
SYMATTR InstName V4
SYMBOL voltage -800 1920 R0
WINDOW 123 0 0 Left 0
WINDOW 39 0 0 Left 0
SYMATTR InstName V6
SYMATTR Value 5V
SYMBOL pmos4 -1056 1632 R0
SYMATTR InstName M11
SYMATTR Value2 l=0.6u w=6u
SYMBOL nmos4 -1056 1808 R0
SYMATTR InstName M12
SYMATTR Value2 l=0.6u w=3u
TEXT -288 552 Left 2 !.tran 0 20ns 0 0.001ns
TEXT -288 1592 Left 2 !;tran 0 20ns 0 0.001ns
TEXT -1232 0 Left 2 ;.import "C5_models.txt"
TEXT -1368 24 Left 2 !;tran 0 20ns 0 0.001ns
TEXT -1136 2224 Left 2 ;.import "C5_models.txt"
TEXT -1272 2248 Left 2 !;tran 0 20ns 0 0.001ns
